feeder-models/J1/Master_withPV.dss
!EPRI Feeder J1, OpenDSS
! This Circuit model is provided to the public by EPRI (Electric Power Research Institute) as part of the Distributed Renewables Research Program (P174).
! Please feel free to use this circuit model for further research/study. 
! For reference purposes, please use: EPRI Feeder J1, Distributed PV (DPV) Monitoring and Feeder Analysis, dpv.epri.com, 2013
Clear

Redirect LoadShapes_mod.dss
Redirect Substation.dss
Redirect LineCodes.dss
Redirect Lines.dss
Redirect Transformers.dss
Redirect LoadsInd.dss
Redirect Services.dss
Redirect Capacitors.dss
Redirect Regulators.dss
Redirect ExistingPV.dss

New Load.b18925 Bus1=b18949 Phases=3 kW=2500 kVAr=1200 vminpu=0.6

set maxiter=100
set maxcontroliter=100

!set loadmult = 0.6918

Set voltagebases=[69, 12.47, 7.2, 0.480, 0.416]
Calcv
Solve



Buscoords Buscoords.dss

AddBusMarker Bus=b18966 code=5 color=Red size=4

AddBusMarker Bus=b41876 code=5 color=Red size=4

Set MarkRegulators=Yes
Set RegMarkerCode=47    ! Marker shape (OpenDSS marker code)
Set RegMarkerSize=3     ! Marker size

!plot circuit