feeder-models/J1/Substation.dss
New Circuit.J1  pu=1.0 r1=0.001 x1=0.001 r0=0.001 x0=0.001 bus1=S basekv=69

New Transformer.SubXfmr phases=3 windings=2 buses=(S,LS_Bus) conns=(wye,wye) 
~ kvs=(68.8,12.47) kvas=(16000,16000) numtaps=16
~ xhl=0.1163 wdg=1 %r=0.596 wdg=2 %r=0.596
~ ppm_antifloat=5

!New regcontrol.SubXfmr transformer=SubXfmr vreg=124 winding=2 band=2 PTratio=60 Delay=90 tapdelay=30 

New line.temp_sub bus1=LS_Bus bus2=FeederHead switch=yes enabled=yes phases=3 normamps=99999 emergamps=99999
 
!New Load.Aggregate_Load phases=3 bus=LS_Bus.1.2.3 kV=12.47 kW=5000 pf=-0.98 status=variable mode=4 CVRwatts=0.8 CVRvars=3 class=1 numcust=1 yearly=AggLoadProfile
